# generated using pymatgen
data_Li2AgF6
_symmetry_space_group_name_H-M   'P 1'
_cell_length_a   4.78268565
_cell_length_b   4.78268565
_cell_length_c   9.31713573
_cell_angle_alpha   90.00000000
_cell_angle_beta   90.00000000
_cell_angle_gamma   90.00000000
_symmetry_Int_Tables_number   1
_chemical_formula_structural   Li2AgF6
_chemical_formula_sum   'Li4 Ag2 F12'
_cell_volume   213.12092734
_cell_formula_units_Z   2
loop_
 _symmetry_equiv_pos_site_id
 _symmetry_equiv_pos_as_xyz
  1  'x, y, z'
loop_
 _atom_site_type_symbol
 _atom_site_label
 _atom_site_symmetry_multiplicity
 _atom_site_fract_x
 _atom_site_fract_y
 _atom_site_fract_z
 _atom_site_occupancy
  Li  Li0  1  0.000000  0.000000  0.336728  1
  Li  Li1  1  0.000000  0.000000  0.663272  1
  Li  Li2  1  0.500000  0.500000  0.163272  1
  Li  Li3  1  0.500000  0.500000  0.836728  1
  Ag  Ag4  1  0.000000  0.000000  0.000000  1
  Ag  Ag5  1  0.500000  0.500000  0.500000  1
  F  F6  1  0.192449  0.807551  0.164820  1
  F  F7  1  0.192449  0.807551  0.835180  1
  F  F8  1  0.195334  0.804666  0.500000  1
  F  F9  1  0.304666  0.304666  0.000000  1
  F  F10  1  0.307551  0.307551  0.335180  1
  F  F11  1  0.307551  0.307551  0.664820  1
  F  F12  1  0.692449  0.692449  0.335180  1
  F  F13  1  0.692449  0.692449  0.664820  1
  F  F14  1  0.695334  0.695334  0.000000  1
  F  F15  1  0.804666  0.195334  0.500000  1
  F  F16  1  0.807551  0.192449  0.164820  1
  F  F17  1  0.807551  0.192449  0.835180  1
